! Users should add all user specific namelist changes below in the form of
! namelist_var = new_namelist_value

&camexp
nhtfrq = 0, 2,1,1
mfilt = 1, 48, 48,48
avgflag_pertape ='A','A','I','I','I'

fincl1 = 'SFisoprene','SFmonoterp','NNAT_0','H2SO4','SOA_LV','COAGNUCL','FORMRATE','NUCLRATE','SOA_NA','SO4_NA','NCONC01','NCONC02','NCONC03','NCONC04','NCONC05','NCONC06','NCONC07','NCONC08','NCONC09','NCONC10','NCONC11','NCONC12','NCONC13','NCONC14','SIGMA01','SIGMA02','SIGMA03','SIGMA04','SIGMA05','SIGMA06','SIGMA07','SIGMA08','SIGMA09','SIGMA10','SIGMA11','SIGMA12','SIGMA13','SIGMA14','NMR01','NMR02','NMR03','NMR04','NMR05','NMR06','NMR07','NMR08','NMR09','NMR10','NMR11','NMR12','NMR13','NMR14', 'FSNS','FSDS_DRF','T','GR','GRH2SO4','GRSOA','CCN4','CCN6', 'TGCLDCWP','U','V','CLDTOT', 'SO2','isoprene','monoterp','GS_SO2', 'GS_H2SO4','GS_monoterp','GS_isoprene'

fincl2 = 'SFisoprene','SFmonoterp','NNAT_0','H2SO4','SOA_LV','COAGNUCL','FORMRATE','NUCLRATE','SOA_NA','SO4_NA','NCONC01','NCONC02','NCONC03','NCONC04','NCONC05','NCONC06','NCONC07','NCONC08','NCONC09','NCONC10','NCONC11','NCONC12','NCONC13','NCONC14','SIGMA01','SIGMA02','SIGMA03','SIGMA04','SIGMA05','SIGMA06','SIGMA07','SIGMA08','SIGMA09','SIGMA10','SIGMA11','SIGMA12','SIGMA13','SIGMA14','NMR01','NMR02','NMR03','NMR04','NMR05','NMR06','NMR07','NMR08','NMR09','NMR10','NMR11','NMR12','NMR13','NMR14', 'FSNS','FSDS_DRF','T','GR','GRH2SO4','GRSOA','CCN4','CCN6', 'TGCLDCWP','U','V','CLDTOT', 'SO2','isoprene','monoterp','GS_SO2', 'GS_H2SO4','GS_monoterp','GS_isoprene'


fincl2lonlat='24.28e_61.85n',


! user_nl_cam additions related to nudging. Specify winds, set relax time, set first wind field file, path to all windfield files
! The f16_g16 resolution only has ERA data from 1999-01-01 to 2003-07-14

&metdata_nl
met_nudge_only_uvps = .true.
met_data_file='/cluster/shared/noresm/inputdata/noresm-only/inputForNudging/ERA_f19_tn14/2010-07-02.nc'
met_filenames_list = '/cluster/work/users/sarambl/inputfiles_sara/filelist_ERA.txt'
met_rlx_time = 6
bnd_topo = '/cluster/shared/noresm/inputdata/noresm-only/inputForNudging/ERA_f19_tn14/ERA_bnd_topo.nc'
drydep_method = 'xactive_lnd'

&phys_ctl_nl
history_aerosol=.true.
history_budget=.true.

&cam_inparm
inithist='ENDOFRUN'


